38

C          0.43182      -22.50884       -0.00021
C          0.37889      -21.28925        0.00119
H          0.47849      -23.57791       -0.00151
C          0.32024      -19.93233        0.00261
C          0.26718      -18.70362        0.00362
C          0.20880      -17.35285        0.00434
C          0.15593      -16.13064        0.00455
C          0.09778      -14.77437        0.00427
C          0.04647      -13.55700        0.00349
C         -0.00943      -12.19704        0.00212
C         -0.05752      -10.98342        0.00041
C         -0.10875       -9.62299       -0.00177
C         -0.15142       -8.40639       -0.00402
C         -0.19482       -7.05070       -0.00641
C         -0.22938       -5.82711       -0.00856
C         -0.26183       -4.48147       -0.01038
C         -0.28558       -3.24410       -0.01170
C         -0.30440       -1.91265       -0.01219
C         -0.31479       -0.65991       -0.01203
C         -0.31830        0.65470       -0.01069
C         -0.31363        1.92552       -0.00867
C         -0.30143        3.22367       -0.00548
C         -0.28129        4.50874       -0.00177
C         -0.25431        5.79284        0.00267
C         -0.21979        7.09005        0.00725
C         -0.17998        8.36560        0.01178
C         -0.13355        9.66677        0.01577
C         -0.08363       10.93956        0.01882
C         -0.02849       12.24076        0.02050
C          0.02860       13.51859        0.02050
C          0.08874       14.81013        0.01847
C          0.15037       16.09865        0.01433
C          0.21274       17.37923        0.00804
C          0.27656       18.68509       -0.00033
C          0.33836       19.94516       -0.01010
C          0.40384       21.27749       -0.02179
C          0.46485       22.51183       -0.03329
H          0.51814       23.58354       -0.04365
