38

C          0.43241      -22.52226       -0.00023
C          0.37781      -21.26431        0.00122
H          0.47946      -23.60163       -0.00154
C          0.32137      -19.95865        0.00259
C          0.26595      -18.67456        0.00364
C          0.21069      -17.39710        0.00434
C          0.15358      -16.07586        0.00455
C          0.10044      -14.83731        0.00431
C          0.04395      -13.49611        0.00344
C         -0.00743      -12.24795        0.00218
C         -0.05940      -10.93426        0.00034
C         -0.10703       -9.67134       -0.00169
C         -0.15275       -8.36642       -0.00409
C         -0.19440       -7.06568       -0.00639
C         -0.22939       -5.82584       -0.00856
C         -0.26205       -4.47294       -0.01039
C         -0.28533       -3.25812       -0.01169
C         -0.30471       -1.88444       -0.01219
C         -0.31455       -0.69943       -0.01205
C         -0.31825        0.70324       -0.01063
C         -0.31389        1.88058       -0.00875
C         -0.30098        3.25776       -0.00539
C         -0.28187        4.47681       -0.00187
C         -0.25348        5.82639        0.00279
C         -0.22053        7.06360        0.00716
C         -0.17986        8.37032        0.01180
C         -0.13334        9.67233        0.01579
C         -0.08402       10.93090        0.01881
C         -0.02806       12.25066        0.02051
C          0.02775       13.50038        0.02051
C          0.08989       14.83394        0.01842
C          0.14905       16.07159        0.01444
C          0.21378       17.40096        0.00793
C          0.27618       18.67708       -0.00028
C          0.33877       19.95354       -0.01016
C          0.40293       21.25875       -0.02163
C          0.46544       22.52375       -0.03340
H          0.51894       23.60369       -0.04380
