    38
 geometry
 C                     0.43602740   -22.83045688    -0.00060707
 C                     0.38451515   -21.62627409     0.00090279
 H                     0.48122441   -23.88780932    -0.00199321
 C                     0.32412981   -20.21583513     0.00253522
 C                     0.27254512   -19.01171466     0.00370118
 C                     0.21213136   -17.60138608     0.00467480
 C                     0.16068602   -16.39729872     0.00507389
 C                     0.10080932   -14.98698384     0.00496075
 C                     0.05033916   -13.78286820     0.00431423
 C                    -0.00756138   -12.37249718     0.00292682
 C                    -0.05541836   -11.16828675     0.00125364
 C                    -0.10898055    -9.75775471    -0.00117751
 C                    -0.15182398    -8.55336546    -0.00350715
 C                    -0.19786002    -7.14258553    -0.00634696
 C                    -0.23279123    -5.93794483    -0.00866475
 C                    -0.26777743    -4.52685848    -0.01103697
 C                    -0.29180609    -3.32195402    -0.01254399
 C                    -0.31244234    -1.91058300    -0.01349389
 C                    -0.32307431    -0.70549621    -0.01343923
 C                    -0.32696698     0.70601253    -0.01226981
 C                    -0.32273936     1.91114545    -0.01027682
 C                    -0.30893874     3.32259284    -0.00680628
 C                    -0.28976315     4.52756582    -0.00300074
 C                    -0.25902916     5.93875065     0.00219687
 C                    -0.22629025     7.14344223     0.00695820
 C                    -0.18101681     8.55424036     0.01251045
 C                    -0.13728402     9.75858589     0.01674088
 C                    -0.08098739    11.16901005     0.02062098
 C                    -0.02949022    12.37306164     0.02251260
 C                     0.03396301    13.78320457     0.02265038
 C                     0.09002653    14.98707232     0.02068173
 C                     0.15720944    16.39705210     0.01577054
 C                     0.21531044    17.60081915     0.00939806
 C                     0.28382823    19.01073460    -0.00039319
 C                     0.34246960    20.21448746    -0.01036073
 C                     0.41117008    21.62449286    -0.02338671
 C                     0.46980013    22.82828983    -0.03511587
 H                     0.52126127    23.88530992    -0.04574494
