14

C         -9.30832        1.46299        0.00000
C         -8.09849        1.46299        0.00000
H         -9.82432        1.62694        0.87857
H         -9.82432        1.29903       -0.87857
C         -6.83380        1.38058        0.00000
C         -5.63503        1.39939        0.00000
C         -4.56738        1.39939        0.00000
C         -3.43441        1.41772       -0.00000
C         -2.49894        1.41772       -0.00000
C         -1.40461        1.47090        0.00000
C         -0.25733        1.50635        0.00000
C          0.76639        1.47090        0.00000
H          1.29891        1.93899       -0.74989
H          1.26525        0.96708        0.74989
