17

C         -9.99023        1.19189        0.00000
C         -8.86183        1.30913        0.00000
H        -10.55479        1.63258        0.74303
H        -10.45214        0.64457       -0.74303
C         -7.75288        1.23097        0.00000
C         -6.93577        1.34821       -0.00000
C         -5.94355        1.23097       -0.00000
C         -5.08753        1.30913       -0.00000
C         -4.17313        1.32867       -0.00000
C         -3.33656        1.32867       -0.00000
C         -2.49999        1.25051       -0.00000
C         -1.60505        1.38729       -0.00000
C         -0.84630        1.40683       -0.00000
C          0.00973        1.38729       -0.00000
C          1.04085        1.38729       -0.00000
H          1.55685        1.14388       -0.85995
H          1.55685        1.63069        0.85995
