23

C        -10.98244        2.40333        0.00000
C         -9.93186        2.46194       -0.00000
H        -11.46745        1.83356       -0.71074
H        -11.52783        2.91560        0.71074
C         -9.13420        2.50102       -0.00000
C         -8.14199        2.55964       -0.00000
C         -7.36378        2.61826       -0.00000
C         -6.44939        2.57918        0.00000
C         -5.43772        2.52056        0.00000
C         -4.48442        2.57918        0.00000
C         -3.62839        2.65734       -0.00000
C         -2.65563        2.69642        0.00000
C         -1.78015        2.63780        0.00000
C         -0.86575        2.54010        0.00000
C          0.02918        2.71595        0.00000
C          1.11867        2.73549        0.00000
C          2.11089        2.69642        0.00000
C          3.25874        2.59872        0.00000
C          4.42605        2.71595       -0.00000
C          5.47663        2.73549       -0.00000
C          6.37157        2.69642        0.00000
H          6.90633        3.11475       -0.77721
H          6.86783        2.23306        0.77721
