24

C        -12.71501        0.95742        0.00000
C        -11.49111        0.95742        0.00000
H        -13.23101        1.84206       -0.12722
H        -13.23101        0.07279        0.12722
C        -10.32548        0.91834        0.00000
C         -9.10158        0.91834       -0.00000
C         -8.07194        1.03558        0.00000
C         -7.02288        1.05512        0.00000
C         -5.87669        0.99650       -0.00000
C         -4.74992        1.03558       -0.00000
C         -3.70086        1.01604        0.00000
C         -2.72950        1.01604        0.00000
C         -1.81643        1.03558       -0.00000
C         -0.94221        1.07466       -0.00000
C         -0.04857        1.11374        0.00000
C          1.07820        1.05512       -0.00000
C          2.08841        1.05512       -0.00000
C          3.02091        1.07466        0.00000
C          3.91455        1.09420        0.00000
C          4.94419        1.07466       -0.00000
C          6.03210        1.05512        0.00000
C          7.10059        1.11374       -0.00000
H          7.58471        1.70907       -0.69010
H          7.64693        0.57493        0.69010
