12

C         -8.74044        2.75240        0.00000
C         -7.60468        2.75240        0.00000
H         -9.25644        3.15178        0.79954
H         -9.25644        2.35303       -0.79954
C         -6.46891        2.77720        0.00000
C         -5.33315        2.77720        0.00000
C         -4.17270        2.82679        0.00000
C         -2.88879        2.75240        0.00000
C         -1.58019        2.82679        0.00000
C         -0.14814        2.77720        0.00000
H          0.39113        3.44019        0.57849
H          0.34397        2.07849       -0.57849
