    26
 geometry
 C                    -0.03300150    15.00209172     0.00212126
 C                    -0.03008959    13.79664626     0.00120891
 H                    -0.03575747    16.06057626     0.00297681
 C                    -0.02703844    12.38447430     0.00023545
 C                    -0.02483038    11.17894863    -0.00045003
 C                    -0.02260561     9.76661236    -0.00103878
 C                    -0.02062858     8.56099700    -0.00130643
 C                    -0.01761537     7.14845966    -0.00136932
 C                    -0.01371149     5.94276697    -0.00123144
 C                    -0.00688282     4.53008028    -0.00087952
 C                     0.00138526     3.32434729    -0.00049974
 C                     0.01408982     1.91160161    -0.00001701
 C                     0.02715497     0.70587472     0.00034899
 C                     0.04414092    -0.70685303     0.00065261
 C                     0.05854301    -1.91256713     0.00076834
 C                     0.07335069    -3.32528320     0.00072012
 C                     0.08186918    -4.53101675     0.00054321
 C                     0.08468979    -5.94370095     0.00021834
 C                     0.07886789    -7.14938451    -0.00007266
 C                     0.06088919    -8.56179699    -0.00037223
 C                     0.03540578    -9.76713716    -0.00049695
 C                    -0.00586043   -11.17886240    -0.00044142
 C                    -0.04931532   -12.38360007    -0.00023019
 C                    -0.10748204   -13.79457637     0.00021483
 C                    -0.16053686   -14.99884682     0.00068495
 H                    -0.20897091   -16.05622886     0.00115560
