    26
 geometry
 C                    -0.03306409    14.98674195     0.00211924
 C                    -0.03017021    13.76633799     0.00120424
 H                    -0.03581910    16.05413865     0.00296822
 C                    -0.02710334    12.39198305     0.00024263
 C                    -0.02491143    11.15230065    -0.00045358
 C                    -0.02261025     9.78160113    -0.00102733
 C                    -0.02068541     8.53734372    -0.00129947
 C                    -0.01749485     7.16652582    -0.00136573
 C                    -0.01367648     5.92080259    -0.00122166
 C                    -0.00671661     4.54941611    -0.00088529
 C                     0.00156930     3.30320290    -0.00049221
 C                     0.01422728     1.93169074    -0.00002726
 C                     0.02739565     0.68534227     0.00034636
 C                     0.04411916    -0.68630839     0.00064324
 C                     0.05876412    -1.93263944     0.00075886
 C                     0.07309548    -3.30412503     0.00071541
 C                     0.08190191    -4.55033703     0.00053268
 C                     0.08438165    -5.92172101     0.00022609
 C                     0.07864775    -7.16744814    -0.00008056
 C                     0.06056403    -8.53812127    -0.00035753
 C                     0.03508181    -9.78213038    -0.00048883
 C                    -0.00573832   -11.15220923    -0.00044033
 C                    -0.04955249   -12.39112502    -0.00021681
 C                    -0.10727269   -13.76426732     0.00021245
 C                    -0.16026232   -14.98353403     0.00068276
 H                    -0.20861086   -16.04983847     0.00114809
