    26
 geometry
 C                    -0.03400534    14.75863072     0.00204384
 C                    -0.03117238    13.54183500     0.00116341
 H                    -0.03672755    15.82539378     0.00285111
 C                    -0.02820361    12.18837953     0.00027831
 C                    -0.02579447    10.95772139    -0.00039629
 C                    -0.02310493     9.61760981    -0.00091047
 C                    -0.02044603     8.38187204    -0.00117262
 C                    -0.01647548     7.04669997    -0.00124316
 C                    -0.01157243     5.80855966    -0.00111752
 C                    -0.00403414     4.47582417    -0.00084327
 C                     0.00516185     3.23659749    -0.00048666
 C                     0.01738044     1.90496975    -0.00010291
 C                     0.03061704     0.66528785     0.00023013
 C                     0.04555515    -0.66609458     0.00047986
 C                     0.05930734    -1.90577066     0.00059487
 C                     0.07127779    -3.23740139     0.00057860
 C                     0.07880658    -4.47663785     0.00044061
 C                     0.07973873    -5.80939519     0.00021980
 C                     0.07312274    -7.04752630    -0.00002956
 C                     0.05587997    -8.38259531    -0.00023600
 C                     0.03064337    -9.61807690    -0.00035081
 C                    -0.00704167   -10.95766539    -0.00031154
 C                    -0.05035879   -12.18756626    -0.00012118
 C                    -0.10397236   -13.53996699     0.00023035
 C                    -0.15539999   -14.75567860     0.00062592
 H                    -0.20312214   -15.82138291     0.00102884
