    26
 geometry
 C                    -0.03400728    14.75876256     0.00204185
 C                    -0.03118649    13.54194199     0.00116395
 H                    -0.03671323    15.82533269     0.00284733
 C                    -0.02821731    12.18827182     0.00027932
 C                    -0.02581488    10.95778097    -0.00039404
 C                    -0.02312017     9.61761977    -0.00090787
 C                    -0.02044852     8.38189641    -0.00117066
 C                    -0.01647158     7.04675461    -0.00124154
 C                    -0.01155128     5.80868490    -0.00111588
 C                    -0.00400849     4.47587920    -0.00084354
 C                     0.00521442     3.23661585    -0.00048649
 C                     0.01740441     1.90501621    -0.00010468
 C                     0.03068252     0.66524400     0.00022939
 C                     0.04556622    -0.66604679     0.00047752
 C                     0.05935833    -1.90581359     0.00059251
 C                     0.07125421    -3.23741554     0.00057668
 C                     0.07880006    -4.47669040     0.00043865
 C                     0.07969017    -5.80951731     0.00021958
 C                     0.07305734    -7.04758013    -0.00002976
 C                     0.05581190    -8.38261784    -0.00023439
 C                     0.03051929    -9.61808660    -0.00034806
 C                    -0.00712094   -10.95772584    -0.00030841
 C                    -0.05034645   -12.18746109    -0.00011866
 C                    -0.10400553   -13.54007392     0.00023135
 C                    -0.15534395   -14.75581666     0.00062518
 H                    -0.20294308   -15.82133244     0.00102436
