7

C         -6.61706        2.90118        0.00000
C         -5.43191        2.95077        0.00000
H         -7.15556        3.42819        0.70519
H         -7.10965        2.33102       -0.70519
C         -4.22208        2.97557        0.00000
H         -3.70339        2.85000       -0.88330
H         -3.70898        3.12228        0.88330
