     7
 geometry
 C                    -0.00041162    -1.32326196    -0.00221844
 C                    -0.00111388    -0.00532518     0.00806030
 H                     0.89578722    -1.89903699     0.25744397
 H                    -0.89979228    -1.88872624    -0.27275638
 C                    -0.00160378     1.33050874    -0.00217022
 H                    -0.90008410     1.90028141     0.25930233
 H                     0.89666973     1.89643855    -0.27210632
