     7
 geometry
 C                    -0.00049334    -1.31423171    -0.00295391
 C                    -0.00161519     0.00138170     0.00234605
 H                     0.66017960    -1.89569634     0.65652631
 H                    -0.66159501    -1.88771368    -0.66919439
 C                    -0.00273772     1.31710098    -0.00185983
 H                    -0.66282148     1.89873248     0.65809718
 H                     0.65853442     1.89130491    -0.66740616
