     7
 geometry
 C                     0.00042787    -1.31752795    -0.00168622
 C                    -0.00196644     0.01264637     0.00514206
 H                     0.77512184    -1.91458319     0.52241060
 H                    -0.77590568    -1.90287583    -0.53797405
 C                    -0.00406798     1.31867806    -0.00102242
 H                    -0.77836191     1.91391304     0.52482943
 H                     0.77420358     1.90062785    -0.53614416
