     7
 geometry
 C                    -0.00126215    -1.31436997    -0.00398377
 C                    -0.00160677     0.00163558    -0.00280361
 H                     0.66076844    -1.89209256     0.65755935
 H                    -0.66393542    -1.89029623    -0.66653492
 C                    -0.00176650     1.31759767    -0.00291264
 H                    -0.66375880     1.89458296     0.65929505
 H                     0.66101249     1.89382089    -0.66506421
