     7
 geometry
 C                     0.00071072    -1.32262971    -0.00170867
 C                    -0.00238387     0.01978042     0.00380938
 H                     0.84843045    -1.92593247     0.39913309
 H                    -0.85019581    -1.91587145    -0.41379273
 C                    -0.00417479     1.32407537    -0.00163695
 H                    -0.85395401     1.92192504     0.40262079
 H                     0.85101860     1.90953113    -0.41286966
