    18
 geometry
 C                    -0.05931917     3.30286524     0.00000000
 C                     0.40237852     2.03575934     0.00000000
 H                    -1.13818540     3.52227893     0.00000000
 H                     0.62584821     4.16132163     0.00000000
 C                    -0.47740756     0.78280527     0.00000000
 C                     0.35887024    -0.52958962     0.00000000
 H                     1.49304427     1.86895819     0.00000000
 H                    -1.13588990     0.79505602     0.89418288
 H                    -1.13588990     0.79505602    -0.89418288
 C                    -0.53705506    -1.79999702     0.00000000
 C                     0.30138099    -3.11164623     0.00000000
 H                     0.94994452    -3.16546353     0.89812036
 H                     0.94994452    -3.16546353    -0.89812036
 H                    -0.35697649    -4.00315118     0.00000000
 H                     1.01442290    -0.54470768     0.89611907
 H                     1.01442290    -0.54470768    -0.89611907
 H                    -1.19362227    -1.78334027     0.89483681
 H                    -1.19362227    -1.78334027    -0.89483681
