    18
 geometry
 C                    -0.05980599     3.30365935     0.00000000
 C                     0.40334709     2.03726848     0.00000000
 H                    -1.13743054     3.52502986     0.00000000
 H                     0.62292592     4.16389182     0.00000000
 C                    -0.47269493     0.78438909     0.00000000
 C                     0.35728918    -0.52990729     0.00000000
 H                     1.49214392     1.86684624     0.00000000
 H                    -1.13730797     0.79381935     0.89039198
 H                    -1.13730797     0.79381935    -0.89039198
 C                    -0.53391575    -1.80180645     0.00000000
 C                     0.30041636    -3.11398166     0.00000000
 H                     0.94937812    -3.16441809     0.89786694
 H                     0.94937812    -3.16441809    -0.89786694
 H                    -0.35875057    -4.00467235     0.00000000
 H                     1.01672459    -0.54508984     0.89376972
 H                     1.01672459    -0.54508984    -0.89376972
 H                    -1.19441257    -1.78332314     0.89241543
 H                    -1.19441257    -1.78332314    -0.89241543
