    18
 geometry
 C                    -0.07001433     3.31311649     0.00000000
 C                     0.41037962     2.04621931     0.00000000
 H                    -1.15163598     3.51056410     0.00000000
 H                     0.60678421     4.17882737     0.00000000
 C                    -0.46210156     0.78897227     0.00000000
 C                     0.35602117    -0.53249273     0.00000000
 H                     1.50130450     1.90139073     0.00000000
 H                    -1.11252592     0.80584216     0.89933840
 H                    -1.11252592     0.80584216    -0.89933840
 C                    -0.53155210    -1.80560712     0.00000000
 C                     0.29323933    -3.12209725     0.00000000
 H                     0.93970499    -3.18284206     0.89882029
 H                     0.93970499    -3.18284206    -0.89882029
 H                    -0.37018394    -4.01086607     0.00000000
 H                     1.00537129    -0.55009841     0.90056007
 H                     1.00537129    -0.55009841    -0.90056007
 H                    -1.18252631    -1.79056843     0.89918421
 H                    -1.18252631    -1.79056843    -0.89918421
