11

C        -10.71007        3.96647        0.00000
C         -9.87350        4.00554        0.00000
C         -8.95910        4.12278        0.00000
C         -7.77234        4.02508        0.00000
C         -6.70231        4.00554        0.00000
C         -5.74002        3.98708        0.00000
C         -4.72006        3.92447        0.00000
C         -3.72987        4.01655        0.00000
C         -2.68467        4.05338        0.00000
C         -1.49278        4.14546        0.00000
C         -0.33757        4.18230        0.00000
