16

C        -10.88517        2.61826        0.00000
C         -9.65949        2.65734        0.00000
C         -8.43382        2.71595        0.00000
C         -7.68310        2.79247       -0.00000
C         -6.79672        2.77763       -0.00000
C         -5.79215        2.82214       -0.00000
C         -5.03872        2.82214       -0.00000
C         -4.10801        2.83698       -0.00000
C         -3.20685        2.83698       -0.00000
C         -2.36478        2.89633       -0.00000
C         -1.33067        2.91116       -0.00000
C         -0.48860        2.95567       -0.00000
C          0.33869        2.92600       -0.00000
C          1.19553        2.91116       -0.00000
C          2.12624        2.97051       -0.00000
C          2.89444        2.92600       -0.00000
