    12
 geometry
 C                    -0.99187235     0.99187235     0.00000000
 H                    -1.76090441     1.76090441     0.00000000
 C                    -1.35492283    -0.36305048     0.00000000
 H                    -2.40544016    -0.64453575     0.00000000
 C                    -0.36305048    -1.35492283     0.00000000
 H                    -0.64453575    -2.40544016     0.00000000
 C                     0.99187235    -0.99187235     0.00000000
 H                     1.76090441    -1.76090441     0.00000000
 C                     1.35492283     0.36305048     0.00000000
 H                     2.40544016     0.64453575     0.00000000
 C                     0.36305048     1.35492283     0.00000000
 H                     0.64453575     2.40544016     0.00000000
