    12
 geometry
 C                    -0.99655451     0.99655451     0.00000000
 H                    -1.77214113     1.77214113     0.00000000
 C                    -1.36131877    -0.36476427     0.00000000
 H                    -2.42078981    -0.64864867     0.00000000
 C                    -0.36476427    -1.36131877     0.00000000
 H                    -0.64864867    -2.42078981     0.00000000
 C                     0.99655451    -0.99655451     0.00000000
 H                     1.77214113    -1.77214113     0.00000000
 C                     1.36131877     0.36476427     0.00000000
 H                     2.42078981     0.64864867     0.00000000
 C                     0.36476427     1.36131877     0.00000000
 H                     0.64864867     2.42078981     0.00000000
