    42
 geometry
 C                     0.54314486   -25.08137053     0.00719065
 C                     0.47903937   -23.85464987     0.00656227
 H                     0.59940636   -26.15157338     0.00771033
 C                     0.40915893   -22.51059121     0.00580131
 C                     0.34498870   -21.26642447     0.00495900
 C                     0.27676802   -19.93846203     0.00386329
 C                     0.21298936   -18.68770111     0.00262155
 C                     0.14658162   -17.36570599     0.00108218
 C                     0.08510229   -16.11097423    -0.00057559
 C                     0.02260037   -14.79282472    -0.00247259
 C                    -0.03451162   -13.53547684    -0.00435120
 C                    -0.09113817   -12.21944101    -0.00630669
 C                    -0.14163268   -10.96024505    -0.00802268
 C                    -0.19003183    -9.64539635    -0.00957633
 C                    -0.23156372    -8.38483079    -0.01064820
 C                    -0.26952028    -7.07065962    -0.01131028
 C                    -0.30002669    -5.80909291    -0.01130654
 C                    -0.32564777    -4.49529671    -0.01071441
 C                    -0.34359913    -3.23305326    -0.00941149
 C                    -0.35563874    -1.91944995    -0.00750030
 C                    -0.36035848    -0.65686879    -0.00502302
 C                    -0.35847274     0.65666062    -0.00211989
 C                    -0.35020636     1.91922221     0.00101674
 C                    -0.33506169     3.23279028     0.00423180
 C                    -0.31480151     4.49499583     0.00724435
 C                    -0.28783826     5.80876227     0.00991181
 C                    -0.25705493     7.07032005     0.01197758
 C                    -0.21998737     8.38451610     0.01332626
 C                    -0.18025898     9.64513960     0.01385521
 C                    -0.13460361    10.96008700     0.01349434
 C                    -0.08724579    12.21940549     0.01237219
 C                    -0.03409761    13.53558593     0.01043509
 C                     0.01986220    14.79307228     0.00804590
 C                     0.07964768    16.11134609     0.00512610
 C                     0.13936206    17.36616044     0.00215539
 C                     0.20508572    18.68818738    -0.00099436
 C                     0.26938530    19.93891929    -0.00384013
 C                     0.33944169    21.26678383    -0.00661451
 C                     0.40638877    22.51080345    -0.00894945
 C                     0.48022241    23.85464924    -0.01122103
 C                     0.54836048    25.08115145    -0.01317136
 H                     0.60836988    26.15115017    -0.01481641
