    52
 geometry
 C                     0.78597508   -31.50640971    -0.00269350
 C                     0.70329637   -30.28094097    -0.00259351
 H                     0.85881813   -32.57565315    -0.00278515
 C                     0.61386355   -28.93819321    -0.00246578
 C                     0.53268455   -27.69499658    -0.00231997
 C                     0.44729777   -26.36831529    -0.00211937
 C                     0.36778124   -25.11831013    -0.00186312
 C                     0.28497815   -23.79756760    -0.00150886
 C                     0.20802737   -22.54353108    -0.00107210
 C                     0.12975534   -21.22650089    -0.00051049
 C                     0.05799105   -19.96966203     0.00013477
 C                    -0.01355635   -18.65474228     0.00090719
 C                    -0.07826995   -17.39586951     0.00174293
 C                    -0.14139187   -16.08221407     0.00268213
 C                    -0.19743271   -14.82176409     0.00364726
 C                    -0.25073527   -13.50887321     0.00466055
 C                    -0.29688433   -12.24718267     0.00563141
 C                    -0.33926841   -10.93475095     0.00656871
 C                    -0.37449789    -9.67209512     0.00737879
 C                    -0.40507207    -8.35994367     0.00803620
 C                    -0.42864978    -7.09657926     0.00848301
 C                    -0.44689834    -5.78462039     0.00869487
 C                    -0.45847471    -4.52079954     0.00863131
 C                    -0.46428216    -3.20899615     0.00824023
 C                    -0.46390758    -1.94495922     0.00755056
 C                    -0.45754382    -0.63328962     0.00650420
 C                    -0.44568634     0.63074523     0.00518127
 C                    -0.42784164     1.94231242     0.00353104
 C                    -0.40540807     3.20615278     0.00170190
 C                    -0.37721148     4.51767633    -0.00037709
 C                    -0.34556343     5.78115934    -0.00251526
 C                    -0.30863026     7.09274127    -0.00479732
 C                    -0.26960435     8.35573210    -0.00702321
 C                    -0.22602482     9.66753656    -0.00930016
 C                    -0.18183383    10.92992324    -0.01143601
 C                    -0.13401195    12.24219137    -0.01353666
 C                    -0.08700026    13.50386506    -0.01540570
 C                    -0.03732622    14.81692368    -0.01710498
 C                     0.01038717    16.07773253    -0.01841386
 C                     0.05996697    17.39199582    -0.01928899
 C                     0.10682940    18.65167575    -0.01949908
 C                     0.15503136    19.96768531    -0.01887737
 C                     0.20011928    21.22577799    -0.01730614
 C                     0.24640762    22.54434266    -0.01442817
 C                     0.28954152    23.80000410    -0.01036407
 C                     0.33405356    25.12260098    -0.00454900
 C                     0.37544611    26.37444002     0.00249379
 C                     0.41898897    27.70314042     0.01165636
 C                     0.45985167    28.94828137     0.02178494
 C                     0.50462166    30.29321300     0.03421664
 C                     0.54594405    31.52071541     0.04630239
 H                     0.58234829    32.59176380     0.05726409
