    10
 geometry
 C                     4.48928109     0.00000000    -0.00215670
 C                     3.26179311     0.00000000    -0.00047547
 H                     5.56059418     0.00000000    -0.00385868
 C                     1.91101890     0.00000000     0.00096817
 C                     0.67083510     0.00000000     0.00165857
 C                    -0.67083510     0.00000000     0.00165857
 C                    -1.91101890     0.00000000     0.00096817
 C                    -3.26179311     0.00000000    -0.00047547
 C                    -4.48928109     0.00000000    -0.00215670
 H                    -5.56059418     0.00000000    -0.00385868
