26
	positive strain
C 	 -0.03389008 	 14.79369521 	 0.00205413
C 	 -0.03100123 	 13.56973772 	 0.00116375
H 	 -0.03655332 	 15.86521662 	 0.00286791
C 	 -0.02806756 	 12.22351448 	 0.00026877
C 	 -0.02564327 	 10.97805618 	 -0.00040641
C 	 -0.02310870 	 9.64754125 	 -0.00091837
C 	 -0.02044449 	 8.39571015 	 -0.00118708
C 	 -0.01670768 	 7.07083328 	 -0.00125133
C 	 -0.01175030 	 5.81561958 	 -0.00112630
C 	 -0.00443020 	 4.49403989 	 -0.00084511
C 	 0.00479847 	 3.23701691 	 -0.00048992
C 	 0.01693802 	 1.91707948 	 -0.00009249
C 	 0.03031774 	 0.65929859 	 0.00024271
C 	 0.04540148 	 -0.66012016 	 0.00049545
C 	 0.05929305 	 -1.91789551 	 0.00061117
C 	 0.07157959 	 -3.23783103 	 0.00058892
C 	 0.07906245 	 -4.49486541 	 0.00045001
C 	 0.08033143 	 -5.81646394 	 0.00021851
C 	 0.07362180 	 -7.07166917 	 -0.00003108
C 	 0.05665874 	 -8.39644333 	 -0.00025078
C 	 0.03077573 	 -9.64800966 	 -0.00036006
C 	 -0.00672496 	 -10.97800048 	 -0.00032127
C 	 -0.05011785 	 -12.22270510 	 -0.00013552
C 	 -0.10395009 	 -13.56785755 	 0.00022169
C 	 -0.15637768 	 -14.79070154 	 0.00063271
H 	 -0.20395141 	 -15.86117361 	 0.00104366
