8
	positive strain
C 	 0.00000000 	 0.00000000 	 -3.19717028
C 	 0.00000000 	 0.00000000 	 -1.97187651
H 	 0.00000000 	 0.00000000 	 -4.26833865
C 	 0.00000000 	 0.00000000 	 -0.61788362
C 	 0.00000000 	 0.00000000 	 0.61788362
C 	 0.00000000 	 0.00000000 	 1.97187651
C 	 0.00000000 	 0.00000000 	 3.19717028
H 	 0.00000000 	 0.00000000 	 4.26833865
