30
	positive strain
C 	 0.15711690 	 -17.36535485 	 -0.02636715
C 	 0.13966089 	 -16.14224592 	 -0.02231033
H 	 0.17231715 	 -18.43683503 	 -0.02981011
C 	 0.12030054 	 -14.79633432 	 -0.01763189
C 	 0.10192146 	 -13.55087270 	 -0.01287712
C 	 0.08149083 	 -12.22096253 	 -0.00726385
C 	 0.06142629 	 -10.96905146 	 -0.00148663
C 	 0.03902182 	 -9.64495593 	 0.00498515
C 	 0.01664075 	 -8.38946723 	 0.01122554
C 	 -0.00830905 	 -7.06894772 	 0.01744331
C 	 -0.03313241 	 -5.81140214 	 0.02260340
C 	 -0.06022605 	 -4.49283669 	 0.02662727
C 	 -0.08634112 	 -3.23416966 	 0.02870729
C 	 -0.11347191 	 -1.91655593 	 0.02857279
C 	 -0.13783842 	 -0.65734128 	 0.02609204
C 	 -0.16068762 	 0.66005487 	 0.02095683
C 	 -0.17811307 	 1.91936853 	 0.01399552
C 	 -0.19023786 	 3.23717910 	 0.00503498
C 	 -0.19390725 	 4.49608063 	 -0.00424580
C 	 -0.18781749 	 5.81488884 	 -0.01375983
C 	 -0.17095253 	 7.07255445 	 -0.02155589
C 	 -0.14039565 	 8.39296688 	 -0.02731753
C 	 -0.09869973 	 9.64797876 	 -0.02968607
C 	 -0.04125438 	 10.97104166 	 -0.02822741
C 	 0.02484638 	 12.22137530 	 -0.02294165
C 	 0.10568709 	 13.54897064 	 -0.01344861
C 	 0.18919778 	 14.79172292 	 -0.00144804
C 	 0.28532699 	 16.13426074 	 0.01398437
C 	 0.37574185 	 17.35407908 	 0.02921915
H 	 0.45613748 	 18.42256686 	 0.04310959
