8
	positive strain
C 	 0.00000000 	 0.00000000 	 -3.18853533
C 	 0.00000000 	 0.00000000 	 -1.97187651
H 	 0.00000000 	 0.00000000 	 -4.25970370
C 	 0.00000000 	 0.00000000 	 -0.61788362
C 	 0.00000000 	 0.00000000 	 0.61788362
C 	 0.00000000 	 0.00000000 	 1.97187651
C 	 0.00000000 	 0.00000000 	 3.18853533
H 	 0.00000000 	 0.00000000 	 4.25970370
