18
	positive strain
C 	 0.01456026 	 9.61704639 	 0.00000000
C 	 0.01101713 	 8.41761323 	 0.00000000
H 	 0.01755646 	 10.68850211 	 0.00000000
C 	 0.00694584 	 7.07061856 	 0.00000000
C 	 0.00290737 	 5.82594988 	 0.00000000
C 	 -0.00158894 	 4.49370752 	 0.00000000
C 	 -0.00579251 	 3.24338410 	 0.00000000
C 	 -0.00985604 	 1.91570303 	 0.00000000
C 	 -0.01293375 	 0.66309149 	 0.00000000
C 	 -0.01486772 	 -0.66310622 	 0.00000000
C 	 -0.01506986 	 -1.91572151 	 0.00000000
C 	 -0.01318953 	 -3.24340747 	 0.00000000
C 	 -0.00932673 	 -4.49373196 	 0.00000000
C 	 -0.00306779 	 -5.82596719 	 0.00000000
C 	 0.00454019 	 -7.07061917 	 0.00000000
C 	 0.01418844 	 -8.41758553 	 0.00000000
C 	 0.02364748 	 -9.61698741 	 0.00000000
H 	 0.03223267 	 -10.68841307 	 0.00000000
