38
	positive strain
C 	 0.43193459 	 -22.51815512 	 -0.00021594
C 	 0.37866934 	 -21.28418674 	 0.00119636
H 	 0.47866208 	 -23.58883282 	 -0.00151625
C 	 0.32054635 	 -19.93939913 	 0.00260337
C 	 0.26680807 	 -18.69484406 	 0.00362829
C 	 0.20937082 	 -17.36618788 	 0.00434133
C 	 0.15525527 	 -16.11495805 	 0.00455432
C 	 0.09854365 	 -14.79239917 	 0.00428338
C 	 0.04565965 	 -13.53741642 	 0.00346952
C 	 -0.00857751 	 -12.21863155 	 0.00214548
C 	 -0.05836920 	 -10.96122162 	 0.00037832
C 	 -0.10798583 	 -9.64456301 	 -0.00173570
C 	 -0.15211096 	 -8.38546771 	 -0.00405319
C 	 -0.19426208 	 -7.07001886 	 -0.00637710
C 	 -0.22984321 	 -5.80964947 	 -0.00858932
C 	 -0.26156067 	 -4.49481478 	 -0.01036456
C 	 -0.28576296 	 -3.23350618 	 -0.01171276
C 	 -0.30433905 	 -1.91890073 	 -0.01219119
C 	 -0.31480887 	 -0.65705485 	 -0.01202845
C 	 -0.31829425 	 0.65752873 	 -0.01068509
C 	 -0.31367107 	 1.91940769 	 -0.00867828
C 	 -0.30128131 	 3.23408279 	 -0.00545640
C 	 -0.28153746 	 4.49546326 	 -0.00180763
C 	 -0.25387396 	 5.81038424 	 0.00273344
C 	 -0.22034001 	 7.07080222 	 0.00718372
C 	 -0.17928242 	 8.38628066 	 0.01185041
C 	 -0.13434854 	 9.64534208 	 0.01570768
C 	 -0.08271762 	 10.96192145 	 0.01886084
C 	 -0.02943025 	 12.21918733 	 0.02048112
C 	 0.02947408 	 13.53777179 	 0.02047834
C 	 0.08790910 	 14.79250625 	 0.01851172
C 	 0.15114927 	 16.11476089 	 0.01425687
C 	 0.21206629 	 17.36566173 	 0.00811498
C 	 0.27700544 	 18.69394385 	 -0.00039959
C 	 0.33801696 	 19.93812543 	 -0.01004241
C 	 0.40410102 	 21.28249337 	 -0.02183610
C 	 0.46472344 	 22.51606741 	 -0.03326700
H 	 0.51790653 	 23.58639414 	 -0.04360432
